<?xml version="1.0" encoding="UTF-8"?>

<!-- generated on 2024-11-12 11:01:06 by Eclipse SUMO sumo Version 1.20.0
-->

<configuration xmlns:xsi="http://www.w3.org/2001/XMLSchema-instance" xsi:noNamespaceSchemaLocation="http://sumo.dlr.de/xsd/sumoConfiguration.xsd">

    <input>
        <net-file value="single-intersection.net.xml"/>
        <route-files value="single-intersection-gen.rou-big.xml"/>
    </input>

</configuration>
